/*--------------------------------*- C++ -*----------------------------------*\
  =========                 |
  \\      /  F ield         | OpenFOAM: The Open Source CFD Toolbox
   \\    /   O peration     | Website:  https://openfoam.org
    \\  /    A nd           | Version:  9
     \\/     M anipulation  |
\*---------------------------------------------------------------------------*/
FoamFile
{
    format      binary;
    class       dictionary;
    location    "system";
    object      preciceDict;
}
// * * * * * * * * * * * * * * * * * * * * * * * * * * * * * * * * * * * * * //

preciceConfig   "../precice-config.xml";

participant     "Fluid-Water";

modules         1 ( FSI );

interfaces
{
    Interface1
    {
        mesh            "Fluid-Water-Faces";
        patches         1 ( membrane );
        locations       faceCenters;
        readData        ();
        writeData       1 ( Stress-Water );
    };

    Interface2
    {
        mesh            "Fluid-Water-Nodes";
        patches         1 ( membrane );
        locations       faceNodes;
        readData        (Displacements0);
        writeData       ();
    };
};

FSI
{
    solverType compressible;
}
// ************************************************************************* //
