/*--------------------------------*- C++ -*----------------------------------*\
  =========                 |
  \\      /  F ield         | OpenFOAM: The Open Source CFD Toolbox
   \\    /   O peration     | Website:  https://openfoam.org
    \\  /    A nd           | Version:  9
     \\/     M anipulation  |
\*---------------------------------------------------------------------------*/
FoamFile
{
    format      binary;
    class       dictionary;
    location    "constant";
    object      dynamicMeshDict;
}
// * * * * * * * * * * * * * * * * * * * * * * * * * * * * * * * * * * * * * //

dynamicFvMesh   dynamicMotionSolverFvMesh;

motionSolver    displacementLaplacian;

velocityLaplacianCoeffs
{
    diffusivity     quadratic inverseDistance ( ball_external );
}

displacementLaplacianCoeffs
{
    diffusivity     quadratic inverseDistance ( ball_external );
}

errorEstimator  scaledDelta;

scaledDeltaField p;

refineInterval  3;

lowerRefineLevel 0.1;

unrefineLevel   0.1;

nBufferLayers   2;

maxRefinement   2;

dumpLevel       false;

protectedPatches 1 ( ball_external );

motionSolverLibs ( "libfvMotionSolvers.so" );


// ************************************************************************* //
