/*--------------------------------*- C++ -*----------------------------------*\
  =========                 |
  \\      /  F ield         | OpenFOAM: The Open Source CFD Toolbox
   \\    /   O peration     | Website:  https://openfoam.org
    \\  /    A nd           | Version:  9
     \\/     M anipulation  |
\*---------------------------------------------------------------------------*/
FoamFile
{
    format      binary;
    class       dictionary;
    location    "constant";
    object      dynamicMeshDict;
}
// * * * * * * * * * * * * * * * * * * * * * * * * * * * * * * * * * * * * * //

dynamicFvMesh   dynamicMotionSolverFvMesh;

protectedPatches 1 ( ball_internal );

motionSolver    displacementLaplacian;

motionSolverLibs ( "libfvMotionSolvers.so" );

displacementLaplacianCoeffs
{
    diffusivity     quadratic inverseDistance 1 ( ball_internal );
}


// ************************************************************************* //
