/*--------------------------------*- C++ -*----------------------------------*\
| =========                 |                                                 |
| \\      /  F ield         | OpenFOAM: The Open Source CFD Toolbox           |
|  \\    /   O peration     | Version:  2.3.0                                 |
|   \\  /    A nd           | Web:      www.OpenFOAM.org                      |
|    \\/     M anipulation  |                                                 |
\*---------------------------------------------------------------------------*/
FoamFile
{
    version     2.0;
    format      ascii;
    class       dictionary;
    location    "system";
    object      setFieldsDict;
}
// * * * * * * * * * * * * * * * * * * * * * * * * * * * * * * * * * * * * * //

fields (alpha.water);

defaultFieldValues
(
    volScalarFieldValue alpha.air 0
    volScalarFieldValue alpha.tnt 0
    volScalarFieldValue alpha.water 1
);


regions
(
    boxToCell
    {
        box (-10 -10 83.8e-2) (10 10 10);
        level 3;
        fieldValues
        (
            volScalarFieldValue alpha.air   1
            volScalarFieldValue alpha.water 0
            volScalarFieldValue alpha.tnt   0
        );
    }
);


// ************************************************************************* //
