/*--------------------------------*- C++ -*----------------------------------*\
  =========                 |
  \\      /  F ield         | OpenFOAM: The Open Source CFD Toolbox
   \\    /   O peration     | Website:  https://openfoam.org
    \\  /    A nd           | Version:  9
     \\/     M anipulation  |
\*---------------------------------------------------------------------------*/
FoamFile
{
    format      binary;
    class       dictionary;
    location    "system";
    object      preciceDict;
}
// * * * * * * * * * * * * * * * * * * * * * * * * * * * * * * * * * * * * * //

preciceConfig   "../precice-config.xml";

participant     "Fluid-Inner";

modules         1 ( FSI );

interfaces
{
    // Interface1
    // {
    //     mesh            "Fluid-Inner-Faces";
    //     patches         1 ( ball_internal );
    //     locations       faceCenters;
    //     readData        ();
    //     writeData       1 ( Stress-Inner );
    // };

    Interface2
    {
        mesh            "Fluid-Inner-Nodes";
        patches         1 ( ball_internal );
        locations       faceNodes;
        readData        ();
        nullReadData    (Displacements0);
        writeData       (negPressure-Inner);
        connectivity    yes;
    };
};

FSI
{
    solverType compressible;
}
// ************************************************************************* //
