FoamFile
{
    format      binary;
    class       dictionary;
    location    "system";
    object      preciceDict;
}
// * * * * * * * * * * * * * * * * * * * * * * * * * * * * * * * * * * * * * //

preciceConfig   "../precice-config.xml";

participant     "Fluid-Inner";

modules         1 ( FSI );

interfaces
{
    // Interface1
    // {
    //     mesh            "Fluid-Inner-Faces";
    //     patches         1 ( ball_internal );
    //     locations       faceCenters;
    //     readData        ();
    //     writeData       1 ( Stress-Inner );
    // };

    Interface2
    {
        mesh            "Fluid-Inner-Nodes";
        patches         1 ( ball_internal );
        locations       faceNodes;
        readData        (Displacements0);
        writeData       (Stress-Inner);
        connectivity    yes;
    };
};

FSI
{
    solverType compressible;
}
// ************************************************************************* //