/*--------------------------------*- C++ -*----------------------------------*\
  =========                 |
  \\      /  F ield         | OpenFOAM: The Open Source CFD Toolbox
   \\    /   O peration     | Website:  https://openfoam.org
    \\  /    A nd           | Version:  9
     \\/     M anipulation  |
\*---------------------------------------------------------------------------*/
FoamFile
{
    format      binary;
    class       dictionary;
    location    "system";
    object      controlDict;
}
// * * * * * * * * * * * * * * * * * * * * * * * * * * * * * * * * * * * * * //

application     blastFoam;

startFrom       startTime;

startTime       0;

stopAt          endTime;

endTime         0.0025;

deltaT          1e-07;

writeControl    adjustableRunTime;

writeInterval   1e-03;

cycleWrite      0;

writeFormat     binary;

writePrecision  6;

writeCompression off;

timeFormat      general;

timePrecision   12;

runTimeModifiable true;

adjustTimeStep  yes;

maxCo           0.5;

maxDeltaT       1;

functions
{
    preCICE_Adapter
    {
        type            preciceAdapterFunctionObject;
        libs            ( "libpreciceAdapterFunctionObject.so" );
    }
}


// ************************************************************************* //
