
        /*--------------------------------*- C++ -*----------------------------------*/
        FoamFile
        {
            version     2.0;
            format      ascii;
            class       volScalarField;
            object      rho.Water-arya.orig;
        }
        // * * * * * * * * * * * * * * * * * * * * * * * * * * * * * * * * * * * * * //
        
        dimensions      [1 -3 0 0 0 0 0];
        
        internalField   uniform 1000;
        
        boundaryField
        {
            #includeEtc "caseDicts/setConstraintTypes"
                hello-arya
    {
        type            zeroGradient;
    }
            
            walls
            {
                type            zeroGradient;
            }
            lungs
            {
                type            zeroGradient;
            }
        
            outlet
            {
                type            zeroGradient;
            }
        
            tank
            {
                type            zeroGradient;
            }
        }
        
        // ************************************************************************* //
        