/*--------------------------------*- C++ -*----------------------------------*\
  =========                 |
  \\      /  F ield         | OpenFOAM: The Open Source CFD Toolbox
   \\    /   O peration     | Website:  https://openfoam.org
    \\  /    A nd           | Version:  9
     \\/     M anipulation  |
\*---------------------------------------------------------------------------*/
FoamFile
{
    format      ascii;
    class       polyBoundaryMesh;
    location    "0.00027/polyMesh";
    object      boundary;
}
// * * * * * * * * * * * * * * * * * * * * * * * * * * * * * * * * * * * * * //

6
(
    tank
    {
        type            wall;
        inGroups        List<word> 1(wall);
        nFaces          304;
        startFace       152472;
    }
    outlet
    {
        type            wall;
        inGroups        List<word> 1(wall);
        nFaces          100;
        startFace       152776;
    }
    back
    {
        type            wedge;
        inGroups        List<word> 1(wedge);
        nFaces          74496;
        startFace       152876;
    }
    front
    {
        type            wedge;
        inGroups        List<word> 1(wedge);
        nFaces          74496;
        startFace       227372;
    }
    defaultFaces
    {
        type            empty;
        inGroups        List<word> 1(empty);
        nFaces          0;
        startFace       301868;
    }
    internal
    {
        type            internal;
        inGroups        List<word> 1(internal);
        nFaces          0;
        startFace       301868;
    }
)

// ************************************************************************* //
